#n B3LYP/6-31G(d) Opt

 DI2

0 1
C         -4.11191       -3.53747        1.26790
C         -3.27068       -2.56005        0.46636
C         -3.49104       -4.94606        1.31546
C         -2.30902       -2.99481       -0.38077
C         -3.06051       -5.35290       -0.08699
N         -2.06598       -4.39514       -0.54804
H         -5.12172       -3.56398        0.80349
C         -3.49291       -1.10254        0.63349
C         -1.48485       -2.01323       -1.14329
C         -0.81860       -4.82651       -1.15993
C         -1.68535       -0.69014       -0.96863
C         -0.41527       -2.51596       -2.08931
H         -4.22041       -5.66400        1.74812
C         -0.58696       -4.01058       -2.42910
H         -0.44124       -1.95520       -3.04799
H         -1.47232       -4.14525       -3.08941
H         -3.95110       -5.31806       -0.75131
H         -0.84631       -5.91315       -1.39309
H         -4.22320       -3.19019        2.31750
H         -2.58574       -4.93213        1.96280
H          0.31347       -4.36505       -2.97473
H          0.56893       -2.33360       -1.60424
H         -2.65829       -6.38921       -0.09313
H          0.02720       -4.64156       -0.46261
C         -3.95514        8.75003        3.26804
O         -3.63037        8.56889        2.10857
O         -4.01513       10.01152        3.75279
H         -3.80846       10.78390        3.20862
C         -4.29381        7.62200        4.16814
C         -2.73437       -0.19418       -0.03335
H         -4.27524       -0.80477        1.31911
H         -1.07497        0.02505       -1.51313
C         -4.66409        7.93514        5.52651
N         -4.96284        8.17291        6.61908
C         -4.29110        6.30807        3.89150
C         -3.99118        5.40587        2.75928
C         -3.55649        5.59396        1.43986
C         -3.34778        4.37952        0.74599
C         -3.63113        3.25348        1.51895
S         -4.13792        3.76460        3.02308
H         -3.37222        6.54441        0.96965
H         -3.00047        4.33581       -0.27883
C         -2.88463        1.28600        0.15111
C         -3.51208        1.81647        1.21592
H         -2.40483        1.94804       -0.56398
H         -3.92128        1.16950        1.97876

