#n B3LYP/6-31G(d) Opt

 DI4

0 1
H         -5.00450      -12.09704       12.25594
H         -6.76306      -11.42776        8.96345
N         -3.02621        7.58843        7.50603
H         -3.90181       -9.87164       13.12307
C         -3.22573        6.97054        6.54997
C         -4.12188      -12.24192       11.59981
C         -5.88476      -11.72967        8.35087
H         -5.41187      -13.38838        9.64540
C         -3.11652      -10.08227       12.36880
S         -3.38394        2.67365        7.05242
N         -4.39632      -11.65243       10.29796
H         -3.93491      -13.33137       11.49859
C         -4.89703      -12.49894        9.22554
H         -6.24752      -12.37312        7.52104
C         -3.48470        6.20037        5.36868
H         -2.70144      -12.02870       13.23789
C         -3.55384       -9.46736       11.06664
C         -4.16992      -10.25484       10.07304
C         -2.89589      -11.59063       12.23548
O         -3.41908        8.15998        3.96889
C         -3.62985        4.90068        5.46629
C         -3.35248       -8.10236       10.84734
H         -5.98367       -9.88224        7.24728
C         -4.55734       -9.66087        8.85505
C         -5.21208      -10.48116        7.77702
C         -3.59200        6.83925        4.05723
C         -3.77218        3.48887        5.65366
H         -2.85918       -7.51949       11.61246
C         -3.73161       -7.51344        9.63055
C         -3.83065        1.17401        6.43735
C         -4.31832       -8.30261        8.63709
H         -2.16666       -9.62217       12.71658
H         -3.48412        8.56081        3.09973
O         -3.82061        6.19005        3.04467
H         -4.62506       -7.85152        7.70252
C         -4.24489        2.63062        4.68427
H         -4.04235      -12.84624        8.60997
C         -4.28858        1.31306        5.13136
H         -2.00459      -11.77932       11.59699
H         -4.42936      -10.76628        7.04412
H         -4.54941        2.96134        3.69625
H         -4.63103        0.48795        4.52179
C         -3.76434       -0.09261        7.17089
C         -3.13373       -0.19094        8.35345
H         -4.25985       -0.94995        6.72564
C         -3.08110       -1.43767        9.11901
C         -2.59625       -1.53549       10.41650
C         -2.71040       -2.82396       10.94021
C         -3.25079       -3.72807       10.03529
S         -3.60671       -2.94489        8.59317
H         -2.18974       -0.69531       10.96881
H         -2.38848       -3.09823       11.93856
H         -2.63916        0.66890        8.79361
C         -3.47736       -5.14718       10.32022
C         -3.51708       -6.07949        9.35334
H         -3.37235       -5.79682        8.31331
H         -3.63044       -5.41227       11.35981

