# opt b3lyp/6-31g(d)

DI1

0 2
 C                 -2.12609000    1.71959000   -2.41423000
 C                 -1.60315000    2.09467000   -1.04192000
 C                 -2.10750000    0.19384000   -2.65210000
 C                 -0.86327000    1.15493000   -0.28879000
 C                 -0.74930000   -0.36869000   -2.25489000
 N                 -0.56196000   -0.13434000   -0.83243000
 H                 -1.51259000    2.25005000   -3.17307000
 C                 -1.87955000    3.36708000   -0.49772000
 C                 -0.43147000    1.47984000    1.00792000
 C                 -0.09122000   -1.19261000    0.05202000
 C                 -0.77348000    2.71308000    1.55808000
 C                  0.38151000    0.50097000    1.82559000
 H                 -2.34409000   -0.02322000   -3.71534000
 C                  0.98762000   -0.61548000    0.95886000
 H                  1.22629000    1.02024000    2.32800000
 H                  1.79302000   -0.19467000    0.31574000
 H                  0.03540000    0.16489000   -2.83258000
 H                  0.30340000   -2.05547000   -0.52708000
 H                 -3.18310000    2.04486000   -2.52687000
 H                 -2.87995000   -0.29778000   -2.01709000
 H                  1.43368000   -1.39274000    1.61533000
 H                 -0.28505000    0.08178000    2.61086000
 H                 -0.68487000   -1.45320000   -2.49277000
 H                 -0.92692000   -1.55259000    0.69095000
 C                 -3.61237000    9.58533000    4.46354000
 O                 -3.50945000    9.71505000    3.25736000
 O                 -4.07624000   10.61605000    5.20542000
 H                 -4.33272000   11.45977000    4.80844000
 C                 -3.22189000    8.33058000    5.14682000
 C                 -1.48864000    3.67513000    0.82045000
 H                 -2.45194000    4.08072000   -1.07770000
 H                 -0.45170000    2.92184000    2.56954000
 C                 -3.36156000    8.27113000    6.58179000
 N                 -3.46901000    8.21081000    7.73272000
 C                 -2.75725000    7.20073000    4.59232000
 C                 -2.47493000    6.65888000    3.24628000
 C                 -2.66691000    7.11638000    1.93606000
 C                 -2.33061000    6.15314000    0.95368000
 C                 -1.85868000    4.95104000    1.49147000
 S                 -1.85924000    5.11739000    3.15812000
 H                 -3.06133000    8.07934000    1.66131000
 H                 -2.44418000    6.33760000   -0.10761000

