# opt b3lyp/6-31g(d)

DI2

0 2
 C                 -4.11191000   -3.53747000    1.26790000
 C                 -3.27068000   -2.56005000    0.46636000
 C                 -3.49104000   -4.94606000    1.31546000
 C                 -2.30902000   -2.99481000   -0.38077000
 C                 -3.06051000   -5.35290000   -0.08699000
 N                 -2.06598000   -4.39514000   -0.54804000
 H                 -5.12172000   -3.56398000    0.80349000
 C                 -3.49291000   -1.10254000    0.63349000
 C                 -1.48485000   -2.01323000   -1.14329000
 C                 -0.81860000   -4.82651000   -1.15993000
 C                 -1.68535000   -0.69014000   -0.96863000
 C                 -0.41527000   -2.51596000   -2.08931000
 H                 -4.22041000   -5.66400000    1.74812000
 C                 -0.58696000   -4.01058000   -2.42910000
 H                 -0.44124000   -1.95520000   -3.04799000
 H                 -1.47232000   -4.14525000   -3.08941000
 H                 -3.95110000   -5.31806000   -0.75131000
 H                 -0.84631000   -5.91315000   -1.39309000
 H                 -4.22320000   -3.19019000    2.31750000
 H                 -2.58574000   -4.93213000    1.96280000
 H                  0.31347000   -4.36505000   -2.97473000
 H                  0.56893000   -2.33360000   -1.60424000
 H                 -2.65829000   -6.38921000   -0.09313000
 H                  0.02720000   -4.64156000   -0.46261000
 C                 -3.95514000    8.75003000    3.26804000
 O                 -3.63037000    8.56889000    2.10857000
 O                 -4.01513000   10.01152000    3.75279000
 H                 -3.80846000   10.78390000    3.20862000
 C                 -4.29381000    7.62200000    4.16814000
 C                 -2.73437000   -0.19418000   -0.03335000
 H                 -4.27524000   -0.80477000    1.31911000
 H                 -1.07497000    0.02505000   -1.51313000
 C                 -4.66409000    7.93514000    5.52651000
 N                 -4.96284000    8.17291000    6.61908000
 C                 -4.29110000    6.30807000    3.89150000
 C                 -3.99118000    5.40587000    2.75928000
 C                 -3.55649000    5.59396000    1.43986000
 C                 -3.34778000    4.37952000    0.74599000
 C                 -3.63113000    3.25348000    1.51895000
 S                 -4.13792000    3.76460000    3.02308000
 H                 -3.37222000    6.54441000    0.96965000
 H                 -3.00047000    4.33581000   -0.27883000
 C                 -2.88463000    1.28600000    0.15111000
 C                 -3.51208000    1.81647000    1.21592000
 H                 -2.40483000    1.94804000   -0.56398000
 H                 -3.92128000    1.16950000    1.97876000

