# opt b3lyp/6-31g(d)

DI3

0 2
 H                 -4.71404000   -8.44436000    7.30037000
 H                 -6.09674000   -8.05297000    4.04570000
 N                 -3.01923000    8.30476000    6.68491000
 H                 -3.68134000   -6.39285000    8.62085000
 C                 -3.50699000    8.59042000    5.67476000
 C                 -3.78379000   -8.55782000    6.70153000
 C                 -5.19216000   -7.92403000    3.41050000
 H                 -4.13219000   -9.60854000    4.30519000
 C                 -2.93085000   -6.47210000    7.80493000
 S                 -4.08563000    5.62189000    4.96817000
 N                 -3.91357000   -7.82924000    5.44946000
 H                 -3.61441000   -9.64121000    6.52140000
 C                 -4.01048000   -8.51246000    4.16896000
 H                 -5.36437000   -8.44801000    2.44604000
 C                 -4.11389000    8.95809000    4.41472000
 H                 -2.42967000   -8.50320000    8.42437000
 C                 -3.47878000   -5.71260000    6.61343000
 C                 -3.94311000   -6.40288000    5.47727000
 C                 -2.62676000   -7.94914000    7.48177000
 O                 -3.69926000   11.32454000    4.91303000
 C                 -4.60135000    8.04497000    3.55219000
 C                 -3.52368000   -4.31185000    6.63846000
 H                 -5.92019000   -5.99345000    2.81071000
 C                 -4.43438000   -5.68973000    4.36742000
 C                 -4.95190000   -6.42370000    3.14685000
 C                 -4.19019000   10.39584000    4.06361000
 C                 -4.63025000    6.57123000    3.68445000
 H                 -3.16789000   -3.80445000    7.52360000
 C                 -3.99343000   -3.58294000    5.52776000
 C                 -4.48348000    4.13897000    4.28129000
 C                 -4.43928000   -4.28931000    4.39352000
 H                 -1.98127000   -6.01530000    8.15897000
 H                 -3.73512000   12.26905000    4.70510000
 O                 -4.69349000   10.75045000    3.00649000
 H                 -4.81030000   -3.75823000    3.52641000
 C                 -5.13581000    5.72956000    2.70274000
 H                 -3.08557000   -8.33461000    3.57735000
 C                 -5.05489000    4.37132000    3.03075000
 H                 -1.71885000   -8.01346000    6.84137000
 H                 -4.20621000   -6.28051000    2.33519000
 H                 -5.55058000    6.08545000    1.76841000
 H                 -5.40565000    3.59682000    2.36358000
 C                 -4.01638000   -2.09415000    5.53629000
 C                 -3.59366000   -1.25007000    6.56656000
 C                 -3.72547000    0.11291000    6.27073000
 C                 -4.25524000    0.35606000    5.00579000
 S                 -4.55725000   -1.12109000    4.26714000
 H                 -3.19326000   -1.58805000    7.51110000
 H                 -3.43531000    0.88446000    6.96994000
 C                 -4.23408000    2.83882000    4.93886000
 C                 -4.51881000    1.65892000    4.36107000
 H                 -3.79008000    2.86710000    5.92744000
 H                 -4.95308000    1.63064000    3.36845000

